 Abaqus/Standard 2021                  DATE 27-4ÔÂ-2023 TIME 23:17:20
 SUMMARY OF JOB INFORMATION:
 STEP  INC ATT SEVERE EQUIL TOTAL  TOTAL      STEP       INC OF       DOF    IF
               DISCON ITERS ITERS  TIME/    TIME/LPF    TIME/LPF    MONITOR RIKS
               ITERS               FREQ
   1     1   1     0     2     2  0.00100    0.00100    0.001000  
   1     2   1     0     1     1  0.00200    0.00200    0.001000  
   1     3   1     0     1     1  0.00300    0.00300    0.001000  
   1     4   1     0     1     1  0.00500    0.00500    0.002000  
   1     5   1     0     1     1  0.00900    0.00900    0.004000  
   1     6   1     0     1     1  0.0170     0.0170     0.008000  
   1     7   1     0     1     1  0.0330     0.0330     0.01600   
   1     8   1     0     1     1  0.0650     0.0650     0.03200   
   1     9   1     0     1     1  0.115      0.115      0.05000   
   1    10   1     0     1     1  0.165      0.165      0.05000   
   1    11   1     0     1     1  0.215      0.215      0.05000   
   1    12   1     0     1     1  0.265      0.265      0.05000   
   1    13   1     0     1     1  0.315      0.315      0.05000   
   1    14   1     0     1     1  0.365      0.365      0.05000   
   1    15   1     0     1     1  0.415      0.415      0.05000   
   1    16   1     0     1     1  0.465      0.465      0.05000   
   1    17   1     0     1     1  0.500      0.500      0.03500   
                          
 THE ANALYSIS HAS COMPLETED SUCCESSFULLY
